/batch
/config,noeldb,1     ! force off writing results to database
*get,_wallstrt,active,,time,wall
! ANSYS input file written by Workbench version 2026 R1
! File used for geometry attach: C:\Users\srp07\OneDrive\Desktop\suspension-bracket-fea-optimization\cad\bracket_baseline.step
/title,bracket_3mm--Static Structural (A5)
! ****** Begin Custom Load Command Snippet ******
/COM, ACT Extensions:
/COM,     LSDYNA, 2026.1
/COM,     5f463412-bd3e-484b-87e7-cbc0a665e474, wbex
/COM,     ANSYSMotion, 2026.1
/COM,     20180725-3f81-49eb-9f31-41364844c769, wbex
! ****** End   Custom Load Command Snippet ******
*DIM,_wb_ProjectScratch_dir,string,248
_wb_ProjectScratch_dir(1) = 'C:\Users\srp07\OneDrive\Desktop\suspension-bracket-fea-optimization\mesh_scripts\_ProjectScratch\Scr4A67\'
*DIM,_wb_SolverFiles_dir,string,248
_wb_SolverFiles_dir(1) = 'C:\Users\srp07\OneDrive\Desktop\suspension-bracket-fea-optimization\mesh_scripts\bracket_3mm_files\dp0\SYS\MECH\'
*DIM,_wb_userfiles_dir,string,248
_wb_userfiles_dir(1) = 'C:\Users\srp07\OneDrive\Desktop\suspension-bracket-fea-optimization\mesh_scripts\bracket_3mm_files\user_files\'
/com,--- Data in consistent NMM units. See Solving Units in the help system for more information.
/units,MPA
/nopr
/wb,file,start              !  signify a WB generated input file
/prep7
! Turn off shape checking because checks already performed inside WB mesher.
! See help system for more information.
SHPP,OFF,,NOWARN
/nolist
etcon,set             ! allow ANSYS to choose best KEYOP's for 180x elements, resets any applicable keyopt to MAPDL defaults
/com,*********** Send User Defined Coordinate System(s) ***********
csys,0
/com,*********** Nodes for the whole assembly ***********
nblock,3,,95569
(1i9,3e20.9e3)
        1     4.374705065E+01    -1.217613457E+01     1.111111111E+00
        2     4.374705065E+01    -1.217613457E+01     2.222222222E+00
        3     4.374705065E+01    -1.217613457E+01     3.333333333E+00
        4     4.374705065E+01    -1.217613457E+01     4.444444444E+00
        5     4.374705065E+01    -1.217613457E+01     5.555555556E+00
        6     4.374705065E+01    -1.217613457E+01     6.666666667E+00
        7     4.374705065E+01    -1.217613457E+01     7.777777778E+00
        8     4.374705065E+01    -1.217613457E+01     8.888888889E+00
        9     4.435120357E+01    -1.251069271E+01     1.111111111E+00
       10     4.435120357E+01    -1.251069271E+01     2.222222222E+00
       11     4.435120357E+01    -1.251069271E+01     3.333333333E+00
       12     4.435120357E+01    -1.251069271E+01     4.444444444E+00
       13     4.435120357E+01    -1.251069271E+01     5.555555556E+00
       14     4.435120357E+01    -1.251069271E+01     6.666666667E+00
       15     4.435120357E+01    -1.251069271E+01     7.777777778E+00
       16     4.435120357E+01    -1.251069271E+01     8.888888889E+00
       17     4.474087899E+01    -1.151547744E+01     1.111111111E+00
       18     4.474087899E+01    -1.151547744E+01     2.222222222E+00
       19     4.474087899E+01    -1.151547744E+01     3.333333333E+00
       20     4.474087899E+01    -1.151547744E+01     4.444444444E+00
! ... 86862 like lines cut
/wb,elem,start            !  set before creation of elements
/com,*********** Elements for Body 1 '2026-08-29-19-21-21-503|Body1' ***********
et,1,186
keyo,1,2,1          ! set full integration on SOLID186
MAT,1 $ TYPE,1 $ REAL,1 $ SECNUM,1 $ ESYS,0    ! ELEMNODES = 20
eblock,21,COMPACT,,19215
(21i9)
        1        1        9     2521     2145    17937    17936    17622    17669    22592    22634    30692    22594    77697    77288    77287    77355    22596    22635    32053    30694
        2        1     2145     2521        9        2     2146     2522       10    22594    30692    22634    22592    22600    30696    22638    22598    22591    30691    32050    22632
        3        2     2146     2522       10        3     2147     2523       11    22600    30696    22638    22598    22605    30699    22641    22603    22597    30695    32054    22636
        4        3     2147     2523       11        4     2148     2524       12    22605    30699    22641    22603    22610    30702    22644    22608    22602    30698    32057    22639
        5        4     2148     2524       12        5     2149     2525       13    22610    30702    22644    22608    22615    30705    22647    22613    22607    30701    32060    22642
        6        5     2149     2525       13        6     2150     2526       14    22615    30705    22647    22613    22620    30708    22650    22618    22612    30704    32063    22645
        7        6     2150     2526       14        7     2151     2527       15    22620    30708    22650    22618    22625    30711    22653    22623    22617    30707    32066    22648
        8        7     2151     2527       15        8     2152     2528       16    22625    30711    22653    22623    22629    30713    22655    22627    22622    30710    32069    22651
        9        8     2152     2528       16    17938    18206    18253    17939    22629    30713    22655    22627    77700    78409    77703    77698    22631    30715    32074    22656
       10        1     2145     1961    15065    17937    17669    17692    16054    22594    30013    30015    22595    77355    77354    73969    73970    22596    30694    30016    72243
       11        1    15065     1961     2145        2    15066     1962     2146    22595    30015    30013    22594    22601    30020    30018    22600    22591    72242    30012    30691
       12        2    15066     1962     2146        3    15067     1963     2147    22601    30020    30018    22600    22606    30024    30022    22605    22597    72244    30017    30695
       13        3    15067     1963     2147        4    15068     1964     2148    22606    30024    30022    22605    22611    30028    30026    22610    22602    72245    30021    30698
       14        4    15068     1964     2148        5    15069     1965     2149    22611    30028    30026    22610    22616    30032    30030    22615    22607    72246    30025    30701
       15        5    15069     1965     2149        6    15070     1966     2150    22616    30032    30030    22615    22621    30036    30034    22620    22612    72247    30029    30704
       16        6    15070     1966     2150        7    15071     1967     2151    22621    30036    30034    22620    22626    30040    30038    22625    22617    72248    30033    30707
       17        7    15071     1967     2151        8    15072     1968     2152    22626    30040    30038    22625    22630    30043    30041    22629    22622    72249    30037    30710
       18        8    15072     1968     2152    17938    19821    18183    18206    22630    30043    30041    22629    77701    78352    78350    77700    22631    72250    30044    30715
       19        1    15065     2113       17    17937    16054    17673    17935    22595    30577    22660    22593    73970    73968    77362    77696    22596    72243    30578    22661
       20        1       17     2113    15065        2       18     2114    15066    22593    22660    30577    22595    22599    22665    30581    22601    22591    22657    30575    72242
! ... 19196 like lines cut
secnum,1    ! reset the section ID to default
! Material Id = {A2A22C06-A59E-4819-8FC1-2D19579B5861}
/wb,elem,end               !  done creating elements
toffst,273.15,      ! Temperature offset from absolute zero
/com,*********** Set Reference Temperature ***********
tref,22.
/wb,mat,start              !  starting to send materials
/com,*********** Send Materials ***********
Temperature = 'TEMP' ! Temperature
MP,DENS,1,7.85e-09,	! tonne mm^-3
MP,ALPX,1,1.2e-05,	! C^-1
MP,C,1,434000000,	! mm^2 s^-2 C^-1
MP,KXX,1,60.5,	! tonne mm s^-3 C^-1
MP,RSVX,1,0.00017,	! ohm mm
MP,EX,1,200000,	! tonne s^-2 mm^-1
MP,NUXY,1,0.3,
MP,MURX,1,10000,
MP,UVID,1,c55385b6-6cab-47d0-979c-aaac989a9212
MP,UMID,1,59002a79-71c2-428e-906b-55d7dbee100e

/wb,mat,end                !  done sending materials
!************************* Model Summary ********************
! 2026-08-29-19-21-21-503|Body1,	Structural Steel,	matid,	1
!************************* End Model Summary ********************
! get the diagonal of the bounding box. Needed later for other things
*get,_xmin,node,,mnloc,x
*get,_ymin,node,,mnloc,y
*get,_zmin,node,,mnloc,z
*get,_xmax,node,,mxloc,x
*get,_ymax,node,,mxloc,y
*get,_zmax,node,,mxloc,z
_ASMDIAG=(_xmax-_xmin)*(_xmax-_xmin)+(_ymax-_ymin)*(_ymax-_ymin)+(_zmax-_zmin)*(_zmax-_zmin)
_ASMDIAG=SQRT(_ASMDIAG)
/wb,contact,start          !  starting to send contact
/wb,contact,end            !  done creating contacts
/golist
/wb,load,start             !  starting to send loads
/com,*********** Fixed Supports ***********
CMBLOCK,_FIXEDSU,NODE,        4
(8i10)
     20165    -20484     82296    -82903
cmsel,s,_FIXEDSU
d,all,all
nsel,all
/com,*********** Define Force Using Surface Effect Elements ***********
local,12,0,0.,0.,0.,0.,0.,0.
csys,0
et,2,154
MAT,2 $ TYPE,2 $ REAL,2 $ SECNUM,2 $ ESYS,12    ! ELEMNODES = 8
eblock,21,COMPACT,,288
(21i9)
    25880    20733    20764    20772    20485    83409    83440    82907    82906
    25881    20702    20765    20133    20163    83377    82234    82233    82294
    25882    20516    20485    20772    20771    82905    82907    83447    83000
    25883    20547    20516    20771    20770    82999    83000    83446    83063
    25884    20578    20547    20770    20769    83062    83063    83445    83126
    25885    20609    20578    20769    20768    83125    83126    83444    83189
    25886    20640    20609    20768    20767    83188    83189    83443    83252
    25887    20671    20640    20767    20766    83251    83252    83442    83315
    25888    20702    20671    20766    20765    83314    83315    83441    83377
    25889    20485    20486    20734    20733    82904    82910    83408    82906
    25890    20516    20517    20486    20485    82998    82909    82904    82905
    25891    20547    20548    20517    20516    83061    83002    82998    82999
    25892    20578    20579    20548    20547    83124    83065    83061    83062
    25893    20609    20610    20579    20578    83187    83128    83124    83125
    25894    20640    20641    20610    20609    83250    83191    83187    83188
    25895    20671    20672    20641    20640    83313    83254    83250    83251
    25896    20702    20703    20672    20671    83376    83317    83313    83314
    25897    20163    20164    20703    20702    82293    82295    83376    82294
    25898    20486    20487    20735    20734    82908    82913    83410    82910
    25899    20517    20518    20487    20486    83001    82912    82908    82909
! ... 269 like lines cut
secnum,1    ! reset the section ID to default
esel,s,type,,2
keyop,2,2,1         ! Apply load in local coordinate system
keyop,2,7,1         ! Use original area so load is constant in large deformation
esel,all
/gst,on,on
fini
*get,_numnode,node,0,count
*get,_numelem,elem,0,count
*get, _MAXELEMNUM, elem, 0, NUM, MAX
*get, _MAXNODENUM, node, 0, NUM, MAX
*get, _MAXELEMTYPE, etyp, 0, NUM, MAX
*get, _MAXREALCONST, rcon, 0, NUM, MAX
/go
/wb,load,end               !  done creating loads
/com,--- Number of total nodes = %_numnode%
/com,--- Number of contact elements = 288
/com,--- Number of spring elements = 0
/com,--- Number of bearing elements = 0
/com,--- Number of solid elements = 19215
/com,--- Number of condensed parts = 0
/com,--- Number of total elements = %_numelem%
*get,_wallbsol,active,,time,wall
/com,****************************************************************************
/com,*************************    SOLUTION       ********************************
/com,****************************************************************************
/solu
antype,0                   ! static analysis
_thickRatio=  1     ! Ratio of thick parts in the model
eqsl,pcg,1e-8,,,,,,1
cntr,print,1               ! print out contact info and also make no initial contact an error
cncheck,dmp		!	Enable program controlled contact splitting for distributed memory parallel run
dmpoption,emat,no             ! Don't combine emat file for DANSYS
dmpoption,esav,no             ! Don't combine esav file for DANSYS
nldiag,cont,iter           ! print out contact info each equilibrium iteration
rescontrol,,none                 ! Do not keep any restart files
/com,****************************************************
/com,******************* SOLVE FOR LS 1 OF 1 ****************
esel,s,type,,2
nsle
sfe,all,1,pres,1,0.
sfe,all,2,pres,1,0.
sfe,all,3,pres,1,-10.3450872826365
nsel,all
esel,all
/nopr
/gopr
nsub,1,1,1
time,1.
outres,erase
outres,all,none
outres,nsol,all,
outres,rsol,all
outres,eangl,all
outres,etmp,all
outres,veng,all
outres,strs,all,
outres,epel,all,
outres,eppl,all,
outres,cont,all,
! *********** WB SOLVE COMMAND ***********
! check interactive state
*get,ANSINTER_,active,,int
*if,ANSINTER_,ne,0,then
/eof
*endif
solve
/com *************** Write FE CONNECTORS ********* 
CEWRITE,file,ce,,INTE
/com,****************************************************
/com,*************** FINISHED SOLVE FOR LS 1 *************
fini
*get,_wallasol,active,,time,wall
/nopr
*get,_numnode,node,0,count
*get,_numelem,elem,0,count
*get, _MAXELEMNUM, elem, 0, NUM, MAX
*get, _MAXNODENUM, node, 0, NUM, MAX,,,INTERNAL
*get, _MAXELEMTYPE, etyp, 0, NUM, MAX
*get, _MAXREALCONST, rcon, 0, NUM, MAX
*get,_NSOLTHREADS,active,0,ntfs
*get,_NSOLPROCESSES,active,0,npfs
/gopr
*get,_PCGITER,active,,solu,cgiter
/post1
xmlo,ENCODING,ISO-8859-1
xmlo,parm
/xml,parm,xml
fini
/gopr
*get,_walldone,active,,time,wall
_preptime=(_wallbsol-_wallstrt)*3600
_solvtime=(_wallasol-_wallbsol)*3600
_posttime=(_walldone-_wallasol)*3600
_totaltim=(_walldone-_wallstrt)*3600
*get,_dlbratio,active,0,solu,dlbr
*get,_combtime,active,0,solu,comb
*get,_ssmode,active,0,solu,ssmm
*get,_ndofs,active,0,solu,ndof
*get,_sol_end_time,active,0,set,time
*if,_sol_end_time,eq,1.000000,then
/fclean				!clean distributed files
*endif
/com,--- Total number of nodes = %_numnode%
/com,--- Total number of elements = %_numelem%
/com,--- Element load balance ratio = %_dlbratio%
/com,--- Time to combine distributed files = %_combtime%
/com,--- Sparse memory mode = %_ssmode%
/com,--- Number of DOF = %_ndofs%
/wb,file,end               ! done with WB generated input
