/batch
/config,noeldb,1     ! force off writing results to database
*get,_wallstrt,active,,time,wall
! ANSYS input file written by Workbench version 2026 R1
! File used for geometry attach: C:\Users\srp07\OneDrive\Desktop\suspension-bracket-fea-optimization\mesh_scripts\u_bracket_1.2mm_files\dp0\global\MECH\SYS-2\AssembledModel\SYS-2.pmdb
/title,u_bracket_1.2mm--Static Structural (C3)
! ****** Begin Custom Load Command Snippet ******
/COM, ACT Extensions:
/COM,     LSDYNA, 2026.1
/COM,     5f463412-bd3e-484b-87e7-cbc0a665e474, wbex
/COM,     ANSYSMotion, 2026.1
/COM,     20180725-3f81-49eb-9f31-41364844c769, wbex
! ****** End   Custom Load Command Snippet ******
*DIM,_wb_ProjectScratch_dir,string,248
_wb_ProjectScratch_dir(1) = 'C:\Users\srp07\OneDrive\Desktop\suspension-bracket-fea-optimization\mesh_scripts\_ProjectScratch\Scr4D6F\'
*DIM,_wb_SolverFiles_dir,string,248
_wb_SolverFiles_dir(1) = 'C:\Users\srp07\OneDrive\Desktop\suspension-bracket-fea-optimization\mesh_scripts\u_bracket_1.2mm_files\dp0\SYS-2\MECH\'
*DIM,_wb_userfiles_dir,string,248
_wb_userfiles_dir(1) = 'C:\Users\srp07\OneDrive\Desktop\suspension-bracket-fea-optimization\mesh_scripts\u_bracket_1.2mm_files\user_files\'
/com,--- Data in consistent NMM units. See Solving Units in the help system for more information.
/units,MPA
/nopr
/wb,file,start              !  signify a WB generated input file
/prep7
! Turn off shape checking because checks already performed inside WB mesher.
! See help system for more information.
SHPP,OFF,,NOWARN
/nolist
etcon,set             ! allow ANSYS to choose best KEYOP's for 180x elements, resets any applicable keyopt to MAPDL defaults
/com,*********** Send User Defined Coordinate System(s) ***********
local,12,0,0.,0.,0.,0.,0.,0.
csys,0
/com,*********** Nodes for the whole assembly ***********
nblock,3,,110583
(1i9,3e20.9e3)
        1     0.000000000E+00    -1.300000000E+01     5.000000075E+00
        2     0.000000000E+00    -1.500000000E+01     7.000000075E+00
        3     0.000000000E+00    -1.400000000E+01     5.267949267E+00
        4     0.000000000E+00    -1.473205081E+01     6.000000075E+00
        5     9.500000000E+01    -1.500000000E+01     7.000000075E+00
        6     1.187500000E+00    -1.500000000E+01     7.000000075E+00
        7     2.375000000E+00    -1.500000000E+01     7.000000075E+00
        8     3.562500000E+00    -1.500000000E+01     7.000000075E+00
        9     4.750000000E+00    -1.500000000E+01     7.000000075E+00
       10     5.937500000E+00    -1.500000000E+01     7.000000075E+00
       11     7.125000000E+00    -1.500000000E+01     7.000000075E+00
       12     8.312500000E+00    -1.500000000E+01     7.000000075E+00
       13     9.500000000E+00    -1.500000000E+01     7.000000075E+00
       14     1.068750000E+01    -1.500000000E+01     7.000000075E+00
       15     1.187500000E+01    -1.500000000E+01     7.000000075E+00
       16     1.306250000E+01    -1.500000000E+01     7.000000075E+00
       17     1.425000000E+01    -1.500000000E+01     7.000000075E+00
       18     1.543750000E+01    -1.500000000E+01     7.000000075E+00
       19     1.662500000E+01    -1.500000000E+01     7.000000075E+00
       20     1.781250000E+01    -1.500000000E+01     7.000000075E+00
! ... 100511 like lines cut
/wb,elem,start            !  set before creation of elements
/com,*********** Elements for Body 1 '2026-08-30-22-58-16-228|Body1(Transient Structural)' ***********
et,1,187
MAT,1 $ TYPE,1 $ REAL,1 $ SECNUM,1 $ ESYS,12    ! ELEMNODES = 10
eblock,21,COMPACT,,58274
(21i9)
        1     2270    15617    13374    15402    30318    96576    30316    30317   100479    96574
        2     2270    15617     4533    13374    30318    42759    30313    30316    96576    42758
        3     3431    15617    11321    11701    38508    81647    38506    38507    85053    81643
        4     2643     3431    15617    11321    33457    38508    33464    33463    38506    81647
        5     2776     4533    15617    13374    34489    42759    34494    34492    42758    96576
        6     2776     3626    15617     4533    34486    39454    34494    34489    39453    42759
        7     3626     3630    15617     4533    39452    39467    39454    39453    39464    42759
        8    13374    15402    15617    15594    96574   100479    96576    96575   100478   100529
        9     2643     3626    15617     3431    33458    39454    33464    33457    38502    38508
       10     2375     2643    15617    11122    31273    33464    31281    31279    33462    79600
       11     2375     2643     3626    15617    31273    33458    31275    31281    33464    39454
       12     2643    15617    11122    11321    33464    79600    33462    33463    81647    79590
       13     2776    15617    11701    13374    34494    85053    34491    34492    96576    85048
       14    14362    15617    15402    15594    99572   100479    99570    99571   100529   100478
       15     3630    14362    15617    15402    39465    99572    39467    39466    99570   100479
       16     2375    15617     3630    14362    31281    39467    31276    31280    99572    39465
       17     2375     3626     3630    15617    31275    39452    31276    31281    39454    39467
       18     2375    11122    15617    14362    31279    79600    31281    31280    79597    99572
       19    11122    11321    15617    13430    79590    81647    79600    79595    81644    96825
       20    11321    11701    15617    13430    81643    85053    81647    81644    85049    96825
! ... 58255 like lines cut
secnum,1    ! reset the section ID to default
! Material Id = {6DCD9FD1-F7D6-4274-AF6E-B09DEC402CEF}
/wb,elem,end               !  done creating elements
toffst,273.15,      ! Temperature offset from absolute zero
/com,*********** Set Reference Temperature ***********
tref,22.
/wb,mat,start              !  starting to send materials
/com,*********** Send Materials ***********
Temperature = 'TEMP' ! Temperature
MP,DENS,1,7.85e-09,	! tonne mm^-3
MP,ALPX,1,1.2e-05,	! C^-1
MP,C,1,434000000,	! mm^2 s^-2 C^-1
MP,KXX,1,60.5,	! tonne mm s^-3 C^-1
MP,RSVX,1,0.00017,	! ohm mm
MP,EX,1,200000,	! tonne s^-2 mm^-1
MP,NUXY,1,0.3,
MP,MURX,1,10000,
MP,UVID,1,11784cd7-249c-4758-926f-f2d031f99a76
MP,UMID,1,59002a79-71c2-428e-906b-55d7dbee100e

/wb,mat,end                !  done sending materials
!************************* Model Summary ********************
! 2026-08-30-22-58-16-228|Body1(Transient Structural),	Structural Steel,	matid,	1
!************************* End Model Summary ********************
! get the diagonal of the bounding box. Needed later for other things
*get,_xmin,node,,mnloc,x
*get,_ymin,node,,mnloc,y
*get,_zmin,node,,mnloc,z
*get,_xmax,node,,mxloc,x
*get,_ymax,node,,mxloc,y
*get,_zmax,node,,mxloc,z
_ASMDIAG=(_xmax-_xmin)*(_xmax-_xmin)+(_ymax-_ymin)*(_ymax-_ymin)+(_zmax-_zmin)*(_zmax-_zmin)
_ASMDIAG=SQRT(_ASMDIAG)
/wb,contact,start          !  starting to send contact
/wb,contact,end            !  done creating contacts
/golist
/wb,load,start             !  starting to send loads
/com,*********** Fixed Supports ***********
CMBLOCK,_FIXEDSU,NODE,      278
(8i10)
       508      -571      1301     -1391     19334    -19336     19340    -19343
     19347    -19349     19354    -19356     19361    -19363     19367    -19369
     19374    -19376     19381    -19383     19388    -19390     19395    -19397
     19400    -19402     19407    -19409     19415    -19417     19423     19424
     19427    -19429     19434    -19437     19441    -19443     19446    -19448
     19453    -19455     19459    -19461     19466    -19468     19473    -19475
     19480    -19482     19485    -19487     19492    -19494     19498    -19500
     19506    -19508     19514     19515     19520    -19523     19527    -19530
     19535    -19538     19543    -19548     19552    -19555     19563    -19565
     19570    -19572     19576    -19578     19582    -19584     19589    -19591
     19596    -19598     19603    -19605     19610    -19612     19617    -19619
     19625    -19627     19631    -19633     19637    -19639     19644     19648
    -19651     19657    -19660     19668    -19671     19674    -19679     19685
    -19688     19692    -19694     19699    -19701     19705    -19707     19711
    -19713     19718    -19720     19724    -19726     19732    -19734     19738
    -19740     19745    -19747     19751    -19753     19757    -19759     19762
    -19764     19768     24236     24237     24240    -24242     24247    -24249
     24253     24259     24260     24265    -24268     24273    -24275     24279
    -24281     24285    -24287     24291    -24293     24298    -24300     24305
    -24307     24312    -24314     24319    -24321     24326    -24328     24332
! ... 15 like lines cut
cmsel,s,_FIXEDSU
d,all,all
nsel,all
/com,*********** Define Force Using Surface Effect Elements ***********
local,13,0,0.,0.,0.,0.,0.,0.
csys,0
et,2,154
MAT,2 $ TYPE,2 $ REAL,2 $ SECNUM,2 $ ESYS,13    ! ELEMNODES = 8
eblock,21,COMPACT,,316
(21i9)
    80315      476      573      477      477    19136    19140      477    19134
    80316      573      574     1179     1179    19777    19786     1179    19778
    80317      574      575     1180     1180    19785    19791     1180    19787
    80318      575      576     1181     1181    19790    19800     1181    19792
    80319      576      572     1182     1182    19771    19774     1182    19801
    80320      478      477     1183     1183    19139    19142     1183    19147
    80321      479      478     1184     1184    19146    19148     1184    19153
    80322      480      479     1185     1185    19152    19154     1185    19160
    80323      481      480     1186     1186    19159    19161     1186    19166
    80324      482      481     1187     1187    19165    19167     1187    19172
    80325      483      482     1188     1188    19171    19173     1188    19179
    80326      484      483     1189     1189    19178    19180     1189    19185
    80327      485      484     1190     1190    19184    19186     1190    19193
    80328      486      485     1191     1191    19192    19194     1191    19199
    80329      487      486     1192     1192    19198    19200     1192    19206
    80330      488      487     1193     1193    19205    19207     1193    19210
    80331      489      488     1194     1194    19209    19211     1194    19217
    80332      490      489     1195     1195    19216    19218     1195    19223
    80333      491      490     1196     1196    19222    19224     1196    19230
    80334      492      491     1197     1197    19229    19231     1197    19237
! ... 297 like lines cut
secnum,1    ! reset the section ID to default
esel,s,type,,2
keyop,2,2,1         ! Apply load in local coordinate system
keyop,2,7,1         ! Use original area so load is constant in large deformation
esel,all
/gst,on,on
fini
*get,_numnode,node,0,count
*get,_numelem,elem,0,count
*get, _MAXELEMNUM, elem, 0, NUM, MAX
*get, _MAXNODENUM, node, 0, NUM, MAX
*get, _MAXELEMTYPE, etyp, 0, NUM, MAX
*get, _MAXREALCONST, rcon, 0, NUM, MAX
/go
/wb,load,end               !  done creating loads
/com,--- Number of total nodes = %_numnode%
/com,--- Number of contact elements = 316
/com,--- Number of spring elements = 0
/com,--- Number of bearing elements = 0
/com,--- Number of solid elements = 58274
/com,--- Number of condensed parts = 0
/com,--- Number of total elements = %_numelem%
*get,_wallbsol,active,,time,wall
/com,****************************************************************************
/com,*************************    SOLUTION       ********************************
/com,****************************************************************************
/solu
antype,0                   ! static analysis
_thickRatio=  1     ! Ratio of thick parts in the model
eqsl,pcg,1e-8,,,,,,1
cntr,print,1               ! print out contact info and also make no initial contact an error
cncheck,dmp		!	Enable program controlled contact splitting for distributed memory parallel run
dmpoption,emat,no             ! Don't combine emat file for DANSYS
dmpoption,esav,no             ! Don't combine esav file for DANSYS
nldiag,cont,iter           ! print out contact info each equilibrium iteration
rescontrol,,none                 ! Do not keep any restart files
/com,****************************************************
/com,******************* SOLVE FOR LS 1 OF 1 ****************
esel,s,type,,2
nsle
sfe,all,1,pres,1,0.
sfe,all,2,pres,1,0.
sfe,all,3,pres,1,-20.9713276967594
nsel,all
esel,all
/nopr
/gopr
nsub,1,1,1
time,1.
outres,erase
outres,all,none
outres,nsol,all,
outres,rsol,all
outres,eangl,all
outres,etmp,all
outres,veng,all
outres,strs,all,
outres,epel,all,
outres,eppl,all,
outres,cont,all,
! *********** WB SOLVE COMMAND ***********
! check interactive state
*get,ANSINTER_,active,,int
*if,ANSINTER_,ne,0,then
/eof
*endif
solve
/com *************** Write FE CONNECTORS ********* 
CEWRITE,file,ce,,INTE
/com,****************************************************
/com,*************** FINISHED SOLVE FOR LS 1 *************
fini
*get,_wallasol,active,,time,wall
/nopr
*get,_numnode,node,0,count
*get,_numelem,elem,0,count
*get, _MAXELEMNUM, elem, 0, NUM, MAX
*get, _MAXNODENUM, node, 0, NUM, MAX,,,INTERNAL
*get, _MAXELEMTYPE, etyp, 0, NUM, MAX
*get, _MAXREALCONST, rcon, 0, NUM, MAX
*get,_NSOLTHREADS,active,0,ntfs
*get,_NSOLPROCESSES,active,0,npfs
/gopr
*get,_PCGITER,active,,solu,cgiter
/post1
xmlo,ENCODING,ISO-8859-1
xmlo,parm
/xml,parm,xml
fini
/gopr
*get,_walldone,active,,time,wall
_preptime=(_wallbsol-_wallstrt)*3600
_solvtime=(_wallasol-_wallbsol)*3600
_posttime=(_walldone-_wallasol)*3600
_totaltim=(_walldone-_wallstrt)*3600
*get,_dlbratio,active,0,solu,dlbr
*get,_combtime,active,0,solu,comb
*get,_ssmode,active,0,solu,ssmm
*get,_ndofs,active,0,solu,ndof
*get,_sol_end_time,active,0,set,time
*if,_sol_end_time,eq,1.000000,then
/fclean				!clean distributed files
*endif
/com,--- Total number of nodes = %_numnode%
/com,--- Total number of elements = %_numelem%
/com,--- Element load balance ratio = %_dlbratio%
/com,--- Time to combine distributed files = %_combtime%
/com,--- Sparse memory mode = %_ssmode%
/com,--- Number of DOF = %_ndofs%
/wb,file,end               ! done with WB generated input
